DEPENDS:
    news
    mediafiles
    django-mptt
    mmutils
    elementtree

SETTINGS DEPENDS:
    MODPATH # the full path of your project root

INSTRUCTIONS:
    add the app at your INSTALLED_APPS (settings)
    add the following url at the top of your main url file:
    
        include('^admin/', include('tv_on_demand.urls')),
